case21pjm.m
function mpc = case21pjm
%
% CASE DESCRIPTION FOR PJM ELECTRICAL SYSTEM SIMULATION
% This MATLAB case study models the PJM electrical system using 21 nodes, each representing
% one of the transmission zones in PJM. The model incorporates:
% - Line, generator, and area data sourced from the U.S. Energy Information Administration (EIA),
%   available at https://atlas.eia.gov/search.
% - Load and additional operational data obtained from the official PJM website.
%
% The simulation provides a detailed representation of the interconnections and operational dynamics
% within the PJM zones, facilitating analysis and research into large-scale power systems.
%
% Developed in December 2024 by Dr. Zhen Tong Shao and Professor Nanpeng Yu, 
% University of California, Riverside.
%
mpc.version = '2';

mpc.baseMVA = 100;

%% bus data
% bus_i	type	Pd	Qd	Gs	Bs	area	Vm	Va	baseKV	zone	Vmax	Vmin
mpc.bus = [
1	1	6765.90000	0	0	0	1	1	0	345	1	1.10000	0.90000
2	1	3066.90000	0	0	0	1	1	0	345	1	1.10000	0.90000
3	1	2953.20000	0	0	0	1	1	0	345	1	1.10000	0.90000
4	1	7459.60000	0	0	0	1	1	0	345	1	1.10000	0.90000
5	1	8651.50000	0	0	0	1	1	0	345	1	1.10000	0.90000
6	1	6161.70000	0	0	0	1	1	0	345	1	1.10000	0.90000
7	1	10151.70000	0	0	0	1	1	0	345	1	1.10000	0.90000
8	1	403.60000	0	0	0	1	1	0	345	1	1.10000	0.90000
9	1	4188.50000	0	0	0	1	1	0	345	1	1.10000	0.90000
10	1	2690.70000	0	0	0	1	1	0	345	1	1.10000	0.90000
11	1	6183.60000	0	0	0	1	1	0	345	1	1.10000	0.90000
12	1	2566	0	0	0	1	1	0	345	1	1.10000	0.90000
13	3	23117.80000	0	0	0	1	1	0	345	1	1.10000	0.90000
14	1	8937.60000	0	0	0	1	1	0	345	1	1.10000	0.90000
15	1	104	0	0	0	1	1	0	345	1	1.10000	0.90000
16	1	21559.60000	0	0	0	1	1	0	345	1	1.10000	0.90000
17	1	3365	0	0	0	1	1	0	345	1	1.10000	0.90000
18	1	5170.90000	0	0	0	1	1	0	345	1	1.10000	0.90000
19	1	12508.30000	0	0	0	1	1	0	345	1	1.10000	0.90000
20	1	3748.30000	0	0	0	1	1	0	345	1	1.10000	0.90000
21	1	22318	0	0	0	1	1	0	345	1	1.10000	0.90000
];

%% generator data
% bus	Pg	Qg	Qmax	Qmin	Vg	mBase	status	Pmax	Pmin	Pc1	Pc2	Qc1min	Qc1max	Qc2min	Qc2max	ramp_agc	ramp_10	ramp_30	ramp_q	apf
mpc.gen = [
1	0	0	0	0	0	0	1	72.30000	0	0	0	0	0	0	0	0	0	0	0	0
1	0	0	0	0	0	0	1	1273	0	0	0	0	0	0	0	0	0	0	0	0
1	0	0	0	0	0	0	1	275.70000	0	0	0	0	0	0	0	0	0	0	0	0
1	0	0	0	0	0	0	1	1055.60000	0	0	0	0	0	0	0	0	0	0	0	0
1	0	0	0	0	0	0	1	127.30000	0	0	0	0	0	0	0	0	0	0	0	0
2	0	0	0	0	0	0	1	114.50000	0	0	0	0	0	0	0	0	0	0	0	0
2	0	0	0	0	0	0	1	36.10000	0	0	0	0	0	0	0	0	0	0	0	0
2	0	0	0	0	0	0	1	19	0	0	0	0	0	0	0	0	0	0	0	0
2	0	0	0	0	0	0	1	6397.80000	0	0	0	0	0	0	0	0	0	0	0	0
2	0	0	0	0	0	0	1	356.10000	0	0	0	0	0	0	0	0	0	0	0	0
2	0	0	0	0	0	0	1	175.40000	0	0	0	0	0	0	0	0	0	0	0	0
3	0	0	0	0	0	0	1	28.40000	-28.40000	0	0	0	0	0	0	0	0	0	0	0
3	0	0	0	0	0	0	1	17.20000	0	0	0	0	0	0	0	0	0	0	0	0
3	0	0	0	0	0	0	1	2463.50000	0	0	0	0	0	0	0	0	0	0	0	0
3	0	0	0	0	0	0	1	90.50000	0	0	0	0	0	0	0	0	0	0	0	0
3	0	0	0	0	0	0	1	433.50000	0	0	0	0	0	0	0	0	0	0	0	0
3	0	0	0	0	0	0	1	3037.40000	0	0	0	0	0	0	0	0	0	0	0	0
3	0	0	0	0	0	0	1	19.90000	0	0	0	0	0	0	0	0	0	0	0	0
3	0	0	0	0	0	0	1	154.60000	0	0	0	0	0	0	0	0	0	0	0	0
3	0	0	0	0	0	0	1	899.70000	0	0	0	0	0	0	0	0	0	0	0	0
4	0	0	0	0	0	0	1	51.30000	0	0	0	0	0	0	0	0	0	0	0	0
4	0	0	0	0	0	0	1	1183	0	0	0	0	0	0	0	0	0	0	0	0
4	0	0	0	0	0	0	1	710.50000	0	0	0	0	0	0	0	0	0	0	0	0
4	0	0	0	0	0	0	1	1058	0	0	0	0	0	0	0	0	0	0	0	0
4	0	0	0	0	0	0	1	6433	0	0	0	0	0	0	0	0	0	0	0	0
4	0	0	0	0	0	0	1	2494	0	0	0	0	0	0	0	0	0	0	0	0
4	0	0	0	0	0	0	1	84.20000	0	0	0	0	0	0	0	0	0	0	0	0
4	0	0	0	0	0	0	1	89.80000	0	0	0	0	0	0	0	0	0	0	0	0
4	0	0	0	0	0	0	1	219.70000	0	0	0	0	0	0	0	0	0	0	0	0
4	0	0	0	0	0	0	1	20	0	0	0	0	0	0	0	0	0	0	0	0
5	0	0	0	0	0	0	1	6.20000	-6.20000	0	0	0	0	0	0	0	0	0	0	0
5	0	0	0	0	0	0	1	165.60000	0	0	0	0	0	0	0	0	0	0	0	0
5	0	0	0	0	0	0	1	5191.30000	0	0	0	0	0	0	0	0	0	0	0	0
5	0	0	0	0	0	0	1	4791.20000	0	0	0	0	0	0	0	0	0	0	0	0
5	0	0	0	0	0	0	1	845.60000	0	0	0	0	0	0	0	0	0	0	0	0
5	0	0	0	0	0	0	1	14	0	0	0	0	0	0	0	0	0	0	0	0
6	0	0	0	0	0	0	1	1.50000	-1.50000	0	0	0	0	0	0	0	0	0	0	0
6	0	0	0	0	0	0	1	17.60000	0	0	0	0	0	0	0	0	0	0	0	0
6	0	0	0	0	0	0	1	116.90000	0	0	0	0	0	0	0	0	0	0	0	0
6	0	0	0	0	0	0	1	6.90000	0	0	0	0	0	0	0	0	0	0	0	0
6	0	0	0	0	0	0	1	77.10000	0	0	0	0	0	0	0	0	0	0	0	0
7	0	0	0	0	0	0	1	2.10000	-2.10000	0	0	0	0	0	0	0	0	0	0	0
7	0	0	0	0	0	0	1	149.40000	0	0	0	0	0	0	0	0	0	0	0	0
7	0	0	0	0	0	0	1	12.30000	0	0	0	0	0	0	0	0	0	0	0	0
7	0	0	0	0	0	0	1	8305.40000	0	0	0	0	0	0	0	0	0	0	0	0
7	0	0	0	0	0	0	1	20.80000	0	0	0	0	0	0	0	0	0	0	0	0
7	0	0	0	0	0	0	1	511.40000	0	0	0	0	0	0	0	0	0	0	0	0
7	0	0	0	0	0	0	1	0.10000	0	0	0	0	0	0	0	0	0	0	0	0
7	0	0	0	0	0	0	1	11.20000	0	0	0	0	0	0	0	0	0	0	0	0
8	0	0	0	0	0	0	1	5.20000	0	0	0	0	0	0	0	0	0	0	0	0
9	0	0	0	0	0	0	1	1.20000	-1.20000	0	0	0	0	0	0	0	0	0	0	0
9	0	0	0	0	0	0	1	22.20000	0	0	0	0	0	0	0	0	0	0	0	0
9	0	0	0	0	0	0	1	410	0	0	0	0	0	0	0	0	0	0	0	0
9	0	0	0	0	0	0	1	496.90000	0	0	0	0	0	0	0	0	0	0	0	0
9	0	0	0	0	0	0	1	4194	0	0	0	0	0	0	0	0	0	0	0	0
9	0	0	0	0	0	0	1	364.70000	0	0	0	0	0	0	0	0	0	0	0	0
9	0	0	0	0	0	0	1	354.90000	0	0	0	0	0	0	0	0	0	0	0	0
9	0	0	0	0	0	0	1	2	0	0	0	0	0	0	0	0	0	0	0	0
9	0	0	0	0	0	0	1	135	0	0	0	0	0	0	0	0	0	0	0	0
10	0	0	0	0	0	0	1	5.40000	0	0	0	0	0	0	0	0	0	0	0	0
10	0	0	0	0	0	0	1	1177.50000	0	0	0	0	0	0	0	0	0	0	0	0
10	0	0	0	0	0	0	1	1808	0	0	0	0	0	0	0	0	0	0	0	0
10	0	0	0	0	0	0	1	19.20000	0	0	0	0	0	0	0	0	0	0	0	0
10	0	0	0	0	0	0	1	58.50000	0	0	0	0	0	0	0	0	0	0	0	0
10	0	0	0	0	0	0	1	85.90000	0	0	0	0	0	0	0	0	0	0	0	0
11	0	0	0	0	0	0	1	86.60000	-86.60000	0	0	0	0	0	0	0	0	0	0	0
11	0	0	0	0	0	0	1	33.50000	0	0	0	0	0	0	0	0	0	0	0	0
11	0	0	0	0	0	0	1	415.40000	0	0	0	0	0	0	0	0	0	0	0	0
11	0	0	0	0	0	0	1	2309.40000	0	0	0	0	0	0	0	0	0	0	0	0
11	0	0	0	0	0	0	1	224.90000	0	0	0	0	0	0	0	0	0	0	0	0
11	0	0	0	0	0	0	1	532.20000	0	0	0	0	0	0	0	0	0	0	0	0
12	0	0	0	0	0	0	1	1	-1	0	0	0	0	0	0	0	0	0	0	0
12	0	0	0	0	0	0	1	5.80000	0	0	0	0	0	0	0	0	0	0	0	0
12	0	0	0	0	0	0	1	226.20000	0	0	0	0	0	0	0	0	0	0	0	0
12	0	0	0	0	0	0	1	3456.70000	0	0	0	0	0	0	0	0	0	0	0	0
12	0	0	0	0	0	0	1	50	0	0	0	0	0	0	0	0	0	0	0	0
12	0	0	0	0	0	0	1	107.50000	0	0	0	0	0	0	0	0	0	0	0	0
12	0	0	0	0	0	0	1	7.50000	0	0	0	0	0	0	0	0	0	0	0	0
12	0	0	0	0	0	0	1	29	0	0	0	0	0	0	0	0	0	0	0	0
13	0	0	0	0	0	0	1	23.50000	-23.50000	0	0	0	0	0	0	0	0	0	0	0
13	0	0	0	0	0	0	1	898.60000	0	0	0	0	0	0	0	0	0	0	0	0
13	0	0	0	0	0	0	1	4940.20000	0	0	0	0	0	0	0	0	0	0	0	0
13	0	0	0	0	0	0	1	841.60000	0	0	0	0	0	0	0	0	0	0	0	0
13	0	0	0	0	0	0	1	16571	0	0	0	0	0	0	0	0	0	0	0	0
13	0	0	0	0	0	0	1	3568	0	0	0	0	0	0	0	0	0	0	0	0
13	0	0	0	0	0	0	1	630.90000	0	0	0	0	0	0	0	0	0	0	0	0
13	0	0	0	0	0	0	1	6711.80000	0	0	0	0	0	0	0	0	0	0	0	0
13	0	0	0	0	0	0	1	208	0	0	0	0	0	0	0	0	0	0	0	0
13	0	0	0	0	0	0	1	54	0	0	0	0	0	0	0	0	0	0	0	0
14	0	0	0	0	0	0	1	27	-27	0	0	0	0	0	0	0	0	0	0	0
14	0	0	0	0	0	0	1	128.60000	0	0	0	0	0	0	0	0	0	0	0	0
14	0	0	0	0	0	0	1	8483.40000	0	0	0	0	0	0	0	0	0	0	0	0
14	0	0	0	0	0	0	1	238.80000	0	0	0	0	0	0	0	0	0	0	0	0
14	0	0	0	0	0	0	1	3015.10000	0	0	0	0	0	0	0	0	0	0	0	0
14	0	0	0	0	0	0	1	3799.20000	0	0	0	0	0	0	0	0	0	0	0	0
14	0	0	0	0	0	0	1	28.20000	0	0	0	0	0	0	0	0	0	0	0	0
14	0	0	0	0	0	0	1	538.00000	0	0	0	0	0	0	0	0	0	0	0	0
14	0	0	0	0	0	0	1	1180.90000	0	0	0	0	0	0	0	0	0	0	0	0
16	0	0	0	0	0	0	1	95.80000	-95.80000	0	0	0	0	0	0	0	0	0	0	0
16	0	0	0	0	0	0	1	46.40000	0	0	0	0	0	0	0	0	0	0	0	0
16	0	0	0	0	0	0	1	22.90000	0	0	0	0	0	0	0	0	0	0	0	0
16	0	0	0	0	0	0	1	12264.90000	0	0	0	0	0	0	0	0	0	0	0	0
16	0	0	0	0	0	0	1	10517.40000	0	0	0	0	0	0	0	0	0	0	0	0
16	0	0	0	0	0	0	1	352.20000	0	0	0	0	0	0	0	0	0	0	0	0
16	0	0	0	0	0	0	1	308.50000	0	0	0	0	0	0	0	0	0	0	0	0
16	0	0	0	0	0	0	1	3206	0	0	0	0	0	0	0	0	0	0	0	0
16	0	0	0	0	0	0	1	36.50000	0	0	0	0	0	0	0	0	0	0	0	0
17	0	0	0	0	0	0	1	7	-7	0	0	0	0	0	0	0	0	0	0	0
17	0	0	0	0	0	0	1	955.40000	0	0	0	0	0	0	0	0	0	0	0	0
17	0	0	0	0	0	0	1	93.50000	0	0	0	0	0	0	0	0	0	0	0	0
17	0	0	0	0	0	0	1	42.20000	0	0	0	0	0	0	0	0	0	0	0	0
17	0	0	0	0	0	0	1	7.90000	0	0	0	0	0	0	0	0	0	0	0	0
18	0	0	0	0	0	0	1	15	-15	0	0	0	0	0	0	0	0	0	0	0
18	0	0	0	0	0	0	1	4.50000	0	0	0	0	0	0	0	0	0	0	0	0
18	0	0	0	0	0	0	1	1020	0	0	0	0	0	0	0	0	0	0	0	0
18	0	0	0	0	0	0	1	2	0	0	0	0	0	0	0	0	0	0	0	0
18	0	0	0	0	0	0	1	1741	0	0	0	0	0	0	0	0	0	0	0	0
18	0	0	0	0	0	0	1	63.60000	0	0	0	0	0	0	0	0	0	0	0	0
18	0	0	0	0	0	0	1	292.20000	0	0	0	0	0	0	0	0	0	0	0	0
18	0	0	0	0	0	0	1	38	0	0	0	0	0	0	0	0	0	0	0	0
19	0	0	0	0	0	0	1	12	-12	0	0	0	0	0	0	0	0	0	0	0
19	0	0	0	0	0	0	1	31.20000	0	0	0	0	0	0	0	0	0	0	0	0
19	0	0	0	0	0	0	1	102.50000	0	0	0	0	0	0	0	0	0	0	0	0
19	0	0	0	0	0	0	1	4139.20000	0	0	0	0	0	0	0	0	0	0	0	0
19	0	0	0	0	0	0	1	2134	0	0	0	0	0	0	0	0	0	0	0	0
19	0	0	0	0	0	0	1	452.70000	0	0	0	0	0	0	0	0	0	0	0	0
19	0	0	0	0	0	0	1	1135.10000	0	0	0	0	0	0	0	0	0	0	0	0
19	0	0	0	0	0	0	1	19.70000	0	0	0	0	0	0	0	0	0	0	0	0
19	0	0	0	0	0	0	1	118.40000	0	0	0	0	0	0	0	0	0	0	0	0
20	0	0	0	0	0	0	1	19.10000	0	0	0	0	0	0	0	0	0	0	0	0
20	0	0	0	0	0	0	1	7308	0	0	0	0	0	0	0	0	0	0	0	0
20	0	0	0	0	0	0	1	603.10000	0	0	0	0	0	0	0	0	0	0	0	0
20	0	0	0	0	0	0	1	4006	0	0	0	0	0	0	0	0	0	0	0	0
20	0	0	0	0	0	0	1	116.70000	0	0	0	0	0	0	0	0	0	0	0	0
21	0	0	0	0	0	0	1	42.80000	-42.80000	0	0	0	0	0	0	0	0	0	0	0
21	0	0	0	0	0	0	1	173.10000	0	0	0	0	0	0	0	0	0	0	0	0
21	0	0	0	0	0	0	1	11354.50000	0	0	0	0	0	0	0	0	0	0	0	0
21	0	0	0	0	0	0	1	922.90000	0	0	0	0	0	0	0	0	0	0	0	0
21	0	0	0	0	0	0	1	238	0	0	0	0	0	0	0	0	0	0	0	0
21	0	0	0	0	0	0	1	13202.90000	0	0	0	0	0	0	0	0	0	0	0	0
21	0	0	0	0	0	0	1	2177	0	0	0	0	0	0	0	0	0	0	0	0
21	0	0	0	0	0	0	1	60.10000	0	0	0	0	0	0	0	0	0	0	0	0
21	0	0	0	0	0	0	1	1717.90000	0	0	0	0	0	0	0	0	0	0	0	0
21	0	0	0	0	0	0	1	2080.60000	0	0	0	0	0	0	0	0	0	0	0	0
21	0	0	0	0	0	0	1	34	0	0	0	0	0	0	0	0	0	0	0	0
7	0	0	0	0	0	0	1	2000	-2000	0	0	0	0	0	0	0	0	0	0	0
11	0	0	0	0	0	0	1	1500	-1500	0	0	0	0	0	0	0	0	0	0	0
13	0	0	0	0	0	0	1	2500	-2500	0	0	0	0	0	0	0	0	0	0	0
21	0	0	0	0	0	0	1	1000	-1000	0	0	0	0	0	0	0	0	0	0	0
21	0	0	0	0	0	0	1	3500	-3500	0	0	0	0	0	0	0	0	0	0	0
20	0	0	0	0	0	0	1	500	-500	0	0	0	0	0	0	0	0	0	0	0
];

%% branch data
%	fbus	tbus	r	x	b	rateA	rateB	rateC	ratio	angle	status	angmin	angmax
mpc.branch = [
1	6	0.01267	0.00456	0.02127	500	0	0	0	0	1	-360	360
1	5	0.00014	0.00168	0.52462	2500	0	0	0	0	1	-360	360
1	6	0.00725	0.00261	0.01217	500	0	0	0	0	1	-360	360
1	14	0.00040	0.00482	1.50741	2500	0	0	0	0	1	-360	360
1	6	0.01269	0.00457	0.02130	500	0	0	0	0	1	-360	360
1	2	0.00034	0.00405	1.26608	2500	0	0	0	0	1	-360	360
1	6	0.02220	0.00799	0.03728	500	0	0	0	0	1	-360	360
1	9	0.02769	0.00997	0.04649	500	0	0	0	0	1	-360	360
1	9	0.02802	0.01009	0.04705	500	0	0	0	0	1	-360	360
1	9	0.01718	0.00618	0.02884	500	0	0	0	0	1	-360	360
1	6	0.00728	0.00262	0.01222	500	0	0	0	0	1	-360	360
1	6	0.00723	0.00260	0.01214	500	0	0	0	0	1	-360	360
1	14	0.00015	0.00182	0.56909	2500	0	0	0	0	1	-360	360
1	14	0.00015	0.00182	0.56886	2500	0	0	0	0	1	-360	360
1	6	0.02220	0.00799	0.03728	500	0	0	0	0	1	-360	360
1	9	0.01705	0.00614	0.02862	500	0	0	0	0	1	-360	360
1	6	0.00725	0.00261	0.01217	500	0	0	0	0	1	-360	360
1	6	0.01266	0.00456	0.02126	500	0	0	0	0	1	-360	360
1	6	0.02218	0.00798	0.03723	500	0	0	0	0	1	-360	360
1	6	0.02225	0.00801	0.03736	500	0	0	0	0	1	-360	360
1	5	0.03343	0.01204	0.05614	500	0	0	0	0	1	-360	360
1	6	0.01267	0.00456	0.02127	500	0	0	0	0	1	-360	360
2	4	0.04728	0.01702	0.07938	500	0	0	0	0	1	-360	360
2	5	0.02208	0.00795	0.03707	500	0	0	0	0	1	-360	360
2	4	0.00037	0.00447	1.39611	2500	0	0	0	0	1	-360	360
2	4	0.01384	0.00498	0.02324	500	0	0	0	0	1	-360	360
2	4	0.03935	0.01416	0.06606	500	0	0	0	0	1	-360	360
2	4	0.04628	0.01666	0.07770	500	0	0	0	0	1	-360	360
2	4	0.01896	0.00683	0.03183	500	0	0	0	0	1	-360	360
2	4	0.01449	0.00522	0.02434	500	0	0	0	0	1	-360	360
2	11	0.01697	0.00611	0.02849	500	0	0	0	0	1	-360	360
2	11	0.03824	0.01377	0.06421	500	0	0	0	0	1	-360	360
2	4	0.01378	0.00496	0.02314	500	0	0	0	0	1	-360	360
2	4	0.01924	0.00693	0.03231	500	0	0	0	0	1	-360	360
2	11	0.01585	0.00571	0.02662	500	0	0	0	0	1	-360	360
2	11	0.02250	0.00810	0.03779	500	0	0	0	0	1	-360	360
2	4	0.04240	0.01527	0.07120	500	0	0	0	0	1	-360	360
2	5	0.00034	0.00408	1.27575	2500	0	0	0	0	1	-360	360
2	4	0.02877	0.01036	0.04831	500	0	0	0	0	1	-360	360
2	4	0.02927	0.01054	0.04914	500	0	0	0	0	1	-360	360
2	4	0.02203	0.00793	0.03699	500	0	0	0	0	1	-360	360
2	4	0.05248	0.01889	0.08811	500	0	0	0	0	1	-360	360
2	4	0.01952	0.00703	0.03277	500	0	0	0	0	1	-360	360
2	4	0.00063	0.00756	2.36189	2500	0	0	0	0	1	-360	360
2	4	0.01969	0.00709	0.03306	500	0	0	0	0	1	-360	360
2	4	0.03675	0.01323	0.06171	500	0	0	0	0	1	-360	360
2	3	0.00094	0.01133	3.53989	2500	0	0	0	0	1	-360	360
2	11	0.08295	0.02986	0.13927	500	0	0	0	0	1	-360	360
2	4	0.04420	0.01591	0.07421	500	0	0	0	0	1	-360	360
2	11	0.01203	0.00433	0.02021	500	0	0	0	0	1	-360	360
2	4	0.03239	0.01166	0.05438	500	0	0	0	0	1	-360	360
2	4	0.04033	0.01452	0.06772	500	0	0	0	0	1	-360	360
3	19	0.00113	0.00566	0.21374	1500	0	0	0	0	1	-360	360
3	14	0.05797	0.02087	0.09733	500	0	0	0	0	1	-360	360
3	14	0.00185	0.00924	0.34893	1500	0	0	0	0	1	-360	360
3	14	0.00186	0.00932	0.35211	1500	0	0	0	0	1	-360	360
3	14	0.07107	0.02559	0.11933	500	0	0	0	0	1	-360	360
3	4	0.05919	0.02131	0.09939	500	0	0	0	0	1	-360	360
3	14	0.06185	0.02227	0.10384	500	0	0	0	0	1	-360	360
3	14	0.00022	0.00263	0.82228	2500	0	0	0	0	1	-360	360
3	4	0.05580	0.02009	0.09369	500	0	0	0	0	1	-360	360
3	14	0.03716	0.01338	0.06240	500	0	0	0	0	1	-360	360
3	4	0.05132	0.01848	0.08617	500	0	0	0	0	1	-360	360
3	4	0.00103	0.01241	3.87782	2500	0	0	0	0	1	-360	360
3	4	0.03327	0.01198	0.05586	500	0	0	0	0	1	-360	360
3	14	0.04143	0.01491	0.06956	500	0	0	0	0	1	-360	360
3	14	0.06217	0.02238	0.10438	500	0	0	0	0	1	-360	360
4	14	0.00100	0.01203	3.75816	2500	0	0	0	0	1	-360	360
4	9	0.03223	0.01160	0.05411	500	0	0	0	0	1	-360	360
4	5	0.00015	0.00179	0.56089	2500	0	0	0	0	1	-360	360
4	5	0.00867	0.00312	0.01455	500	0	0	0	0	1	-360	360
4	5	0.03148	0.01133	0.05286	500	0	0	0	0	1	-360	360
4	5	0.01181	0.00425	0.01983	500	0	0	0	0	1	-360	360
4	11	0.00041	0.00493	1.54178	2500	0	0	0	0	1	-360	360
4	5	0.00853	0.00307	0.01432	500	0	0	0	0	1	-360	360
4	11	0.02370	0.00853	0.03979	500	0	0	0	0	1	-360	360
4	11	0.00067	0.00806	2.51891	2500	0	0	0	0	1	-360	360
5	9	0.01236	0.00445	0.02075	500	0	0	0	0	1	-360	360
5	9	0.04538	0.01634	0.07619	500	0	0	0	0	1	-360	360
5	12	0.01705	0.00614	0.02863	500	0	0	0	0	1	-360	360
5	9	0.01429	0.00515	0.02400	500	0	0	0	0	1	-360	360
5	9	0.00006	0.00076	0.23873	2500	0	0	0	0	1	-360	360
5	7	0.00307	0.00111	0.00516	500	0	0	0	0	1	-360	360
5	9	0.00866	0.00312	0.01454	500	0	0	0	0	1	-360	360
5	7	0.00331	0.00119	0.00556	500	0	0	0	0	1	-360	360
5	7	0.00438	0.00158	0.00735	500	0	0	0	0	1	-360	360
5	11	0.00033	0.00401	1.25252	2500	0	0	0	0	1	-360	360
5	9	0.00260	0.00094	0.00436	500	0	0	0	0	1	-360	360
5	11	0.02461	0.00886	0.04133	500	0	0	0	0	1	-360	360
6	13	0.02601	0.00936	0.04368	500	0	0	0	0	1	-360	360
6	14	0.02011	0.00724	0.03376	500	0	0	0	0	1	-360	360
6	13	0.00182	0.00066	0.00306	500	0	0	0	0	1	-360	360
6	13	0.00027	0.00324	1.01264	2500	0	0	0	0	1	-360	360
6	13	0.02602	0.00937	0.04368	500	0	0	0	0	1	-360	360
6	14	0.02110	0.00760	0.03544	500	0	0	0	0	1	-360	360
6	13	0.02602	0.00937	0.04369	500	0	0	0	0	1	-360	360
6	14	0.02009	0.00723	0.03373	500	0	0	0	0	1	-360	360
6	14	0.02114	0.00761	0.03550	500	0	0	0	0	1	-360	360
6	13	0.02605	0.00938	0.04373	500	0	0	0	0	1	-360	360
7	11	0.00015	0.00183	0.57145	2500	0	0	0	0	1	-360	360
7	11	0.01482	0.00533	0.02488	500	0	0	0	0	1	-360	360
7	11	0.01229	0.00443	0.02064	500	0	0	0	0	1	-360	360
7	11	0.02009	0.00723	0.03373	500	0	0	0	0	1	-360	360
7	11	0.01199	0.00432	0.02013	500	0	0	0	0	1	-360	360
7	11	0.01416	0.00510	0.02377	500	0	0	0	0	1	-360	360
7	11	0.02479	0.00892	0.04163	500	0	0	0	0	1	-360	360
7	11	0.01869	0.00673	0.03138	500	0	0	0	0	1	-360	360
7	8	0.00027	0.00133	0.05022	1500	0	0	0	0	1	-360	360
7	12	0.00703	0.00253	0.01180	500	0	0	0	0	1	-360	360
7	12	0.00799	0.00288	0.01342	500	0	0	0	0	1	-360	360
7	12	0.00795	0.00286	0.01335	500	0	0	0	0	1	-360	360
7	12	0.02488	0.00896	0.04178	500	0	0	0	0	1	-360	360
7	11	0.01231	0.00443	0.02068	500	0	0	0	0	1	-360	360
7	12	0.02824	0.01017	0.04741	500	0	0	0	0	1	-360	360
7	11	0.03580	0.01289	0.06011	500	0	0	0	0	1	-360	360
7	11	0.01416	0.00510	0.02378	500	0	0	0	0	1	-360	360
7	11	0.01489	0.00536	0.02499	500	0	0	0	0	1	-360	360
7	11	0.01199	0.00432	0.02013	500	0	0	0	0	1	-360	360
7	11	0.00017	0.00204	0.63711	2500	0	0	0	0	1	-360	360
7	11	0.00553	0.00199	0.00928	500	0	0	0	0	1	-360	360
7	11	0.00013	0.00158	0.49242	2500	0	0	0	0	1	-360	360
7	11	0.00022	0.00259	0.80903	2500	0	0	0	0	1	-360	360
7	11	0.00552	0.00199	0.00926	500	0	0	0	0	1	-360	360
7	11	0.05067	0.01824	0.08507	500	0	0	0	0	1	-360	360
7	11	0.01769	0.00637	0.02970	500	0	0	0	0	1	-360	360
9	12	0.00015	0.00174	0.54436	2500	0	0	0	0	1	-360	360
10	21	0.00169	0.00844	0.31897	1500	0	0	0	0	1	-360	360
10	19	0.00322	0.01612	0.60902	1500	0	0	0	0	1	-360	360
10	21	0.00075	0.00374	0.14116	1500	0	0	0	0	1	-360	360
10	19	0.00279	0.01395	0.52719	1500	0	0	0	0	1	-360	360
10	19	0.00330	0.01651	0.62391	1500	0	0	0	0	1	-360	360
10	19	0.00388	0.01941	0.73312	1500	0	0	0	0	1	-360	360
11	12	0.02802	0.01009	0.04704	500	0	0	0	0	1	-360	360
11	12	0.00044	0.00530	1.65745	2500	0	0	0	0	1	-360	360
13	21	0.03511	0.01264	0.05894	500	0	0	0	0	1	-360	360
13	14	0.00050	0.00600	1.87550	2500	0	0	0	0	1	-360	360
13	14	0.00015	0.00184	0.57574	2500	0	0	0	0	1	-360	360
13	14	0.00047	0.00560	1.74944	2500	0	0	0	0	1	-360	360
13	14	0.00053	0.00640	1.99878	2500	0	0	0	0	1	-360	360
13	21	0.00010	0.00196	6.71198	3000	0	0	0	0	1	-360	360
13	21	0.00011	0.00225	7.71186	3000	0	0	0	0	1	-360	360
13	14	0.01463	0.00527	0.02456	500	0	0	0	0	1	-360	360
13	14	0.01479	0.00532	0.02483	500	0	0	0	0	1	-360	360
13	14	0.00043	0.00510	1.59497	2500	0	0	0	0	1	-360	360
13	14	0.00028	0.00340	1.06370	2500	0	0	0	0	1	-360	360
13	21	0.00139	0.00697	0.26320	1500	0	0	0	0	1	-360	360
14	21	0.00012	0.00236	8.06687	3000	0	0	0	0	1	-360	360
14	21	0.00009	0.00174	5.96432	3000	0	0	0	0	1	-360	360
14	21	0.00035	0.00423	1.32273	2500	0	0	0	0	1	-360	360
14	21	0.00123	0.00613	0.23174	1500	0	0	0	0	1	-360	360
14	21	0.00017	0.00084	0.03173	1500	0	0	0	0	1	-360	360
14	21	0.00040	0.00199	0.07511	1500	0	0	0	0	1	-360	360
15	21	0.00263	0.01315	0.49690	1500	0	0	0	0	1	-360	360
15	18	0.00373	0.01866	0.70486	1500	0	0	0	0	1	-360	360
15	21	0.00162	0.00810	0.30582	1500	0	0	0	0	1	-360	360
15	21	0.00256	0.01278	0.48290	1500	0	0	0	0	1	-360	360
15	18	0.00373	0.01866	0.70485	1500	0	0	0	0	1	-360	360
15	21	0.00001	0.00006	0.00236	1500	0	0	0	0	1	-360	360
15	21	0.00001	0.00006	0.00236	1500	0	0	0	0	1	-360	360
15	21	0.00260	0.01302	0.49182	1500	0	0	0	0	1	-360	360
15	18	0.00368	0.01840	0.69528	1500	0	0	0	0	1	-360	360
15	21	0.00263	0.01316	0.49710	1500	0	0	0	0	1	-360	360
15	18	0.00368	0.01840	0.69528	1500	0	0	0	0	1	-360	360
15	21	0.00167	0.00836	0.31588	1500	0	0	0	0	1	-360	360
15	21	0.00006	0.00124	4.25151	3000	0	0	0	0	1	-360	360
16	21	0.00017	0.00332	11.37598	3000	0	0	0	0	1	-360	360
17	21	0.00283	0.01414	0.53401	1500	0	0	0	0	1	-360	360
17	21	0.00292	0.01460	0.55168	1500	0	0	0	0	1	-360	360
17	21	0.00126	0.00632	0.23881	1500	0	0	0	0	1	-360	360
17	21	0.00021	0.00424	14.53236	3000	0	0	0	0	1	-360	360
17	18	0.00160	0.00801	0.30276	1500	0	0	0	0	1	-360	360
17	18	0.00381	0.01905	0.71950	1500	0	0	0	0	1	-360	360
17	21	0.00259	0.01296	0.48955	1500	0	0	0	0	1	-360	360
17	18	0.00188	0.00939	0.35477	1500	0	0	0	0	1	-360	360
17	21	0.00057	0.00284	0.10722	1500	0	0	0	0	1	-360	360
17	21	0.00151	0.00756	0.28559	1500	0	0	0	0	1	-360	360
17	19	0.00137	0.00684	0.25835	1500	0	0	0	0	1	-360	360
17	21	0.00005	0.00091	3.10549	3000	0	0	0	0	1	-360	360
17	21	0.00368	0.01839	0.69486	1500	0	0	0	0	1	-360	360
17	21	0.00020	0.00391	13.38544	3000	0	0	0	0	1	-360	360
17	21	0.00138	0.00688	0.25992	1500	0	0	0	0	1	-360	360
18	21	0.00373	0.01866	0.70486	1500	0	0	0	0	1	-360	360
18	20	0.00135	0.00677	0.25586	1500	0	0	0	0	1	-360	360
18	20	0.00183	0.00913	0.34486	1500	0	0	0	0	1	-360	360
18	21	0.00373	0.01866	0.70485	1500	0	0	0	0	1	-360	360
18	21	0.00171	0.00855	0.32296	1500	0	0	0	0	1	-360	360
18	21	0.00368	0.01840	0.69528	1500	0	0	0	0	1	-360	360
18	21	0.00368	0.01840	0.69528	1500	0	0	0	0	1	-360	360
19	21	0.00176	0.00881	0.33277	1500	0	0	0	0	1	-360	360
19	21	0.00253	0.01263	0.47698	1500	0	0	0	0	1	-360	360
19	21	0.00368	0.01841	0.69533	1500	0	0	0	0	1	-360	360
19	21	0.00128	0.00639	0.24124	1500	0	0	0	0	1	-360	360
19	21	0.00021	0.00106	0.04011	1500	0	0	0	0	1	-360	360
19	21	0.00039	0.00194	0.07338	1500	0	0	0	0	1	-360	360
19	21	0.00205	0.01024	0.38683	1500	0	0	0	0	1	-360	360
20	21	0.00059	0.00296	0.11176	1500	0	0	0	0	1	-360	360
20	21	0.01731	0.06347	0.05815	200	0	0	0	0	1	-360	360
];

%% generator cost data
%	1	startup	shutdown	n	x1	y1	...	xn	yn
%	2	startup	shutdown	n	c(n-1)	...	c0
mpc.gencost = [
2	0	0	3	0.01648	40.07150	0
2	0	0	3	0.01528	43.96285	0
2	0	0	3	0.01700	42.14297	0
2	0	0	3	0.01717	37.22819	0
2	0	0	3	0.01175	39.56841	0
2	0	0	3	0.01929	35.09886	0
2	0	0	3	0.01090	43.50200	0
2	0	0	3	0.01486	43.76836	0
2	0	0	3	0.01307	38.87966	0
2	0	0	3	0.01581	36.13687	0
2	0	0	3	0.01768	38.12566	0
2	0	0	3	0	0.00100	0
2	0	0	3	0.01646	35.32699	0
2	0	0	3	0.01166	39.30303	0
2	0	0	3	0.01228	44.66307	0
2	0	0	3	0.01905	43.65663	0
2	0	0	3	0.01032	42.99498	0
2	0	0	3	0.01906	42.03933	0
2	0	0	3	0.01230	39.11436	0
2	0	0	3	0.01979	38.29046	0
2	0	0	3	0.01596	40.35846	0
2	0	0	3	0.01461	37.25800	0
2	0	0	3	0.01921	41.10823	0
2	0	0	3	0.01220	35.39285	0
2	0	0	3	0.01548	35.90187	0
2	0	0	3	0.01818	41.83570	0
2	0	0	3	0.01936	35.89911	0
2	0	0	3	0.01013	37.16112	0
2	0	0	3	0.01384	42.37534	0
2	0	0	3	0.01255	37.55399	0
2	0	0	3	0	0.00100	0
2	0	0	3	0.01239	36.06521	0
2	0	0	3	0.01182	43.92932	0
2	0	0	3	0.01060	36.65964	0
2	0	0	3	0.01037	42.00853	0
2	0	0	3	0.01997	36.11027	0
2	0	0	3	0	0.00100	0
2	0	0	3	0.01725	38.37413	0
2	0	0	3	0.01177	44.41868	0
2	0	0	3	0.01976	42.64766	0
2	0	0	3	0.01403	39.18012	0
2	0	0	3	0	0.00100	0
2	0	0	3	0.01645	35.35684	0
2	0	0	3	0.01135	41.34775	0
2	0	0	3	0.01931	44.50423	0
2	0	0	3	0.01563	37.12031	0
2	0	0	3	0.01541	36.73333	0
2	0	0	3	0.01147	42.26495	0
2	0	0	3	0.01210	35.22090	0
2	0	0	3	0.01626	44.50933	0
2	0	0	3	0	0.00100	0
2	0	0	3	0.01894	38.69264	0
2	0	0	3	0.01929	40.14881	0
2	0	0	3	0.01944	40.69471	0
2	0	0	3	0.01013	38.38277	0
2	0	0	3	0.01119	38.40629	0
2	0	0	3	0.01364	41.54736	0
2	0	0	3	0.01936	36.99475	0
2	0	0	3	0.01624	36.57172	0
2	0	0	3	0.01083	41.93097	0
2	0	0	3	0.01274	39.04923	0
2	0	0	3	0.01997	40.04111	0
2	0	0	3	0.01938	38.56809	0
2	0	0	3	0.01298	36.15545	0
2	0	0	3	0.01452	44.77932	0
2	0	0	3	0	0.00100	0
2	0	0	3	0.01467	35.32442	0
2	0	0	3	0.01656	35.28554	0
2	0	0	3	0.01302	44.78097	0
2	0	0	3	0.01077	38.44114	0
2	0	0	3	0.01002	41.87385	0
2	0	0	3	0	0.00100	0
2	0	0	3	0.01034	37.76593	0
2	0	0	3	0.01018	35.91205	0
2	0	0	3	0.01958	43.88078	0
2	0	0	3	0.01657	44.79751	0
2	0	0	3	0.01461	35.75349	0
2	0	0	3	0.01805	41.36747	0
2	0	0	3	0.01704	44.74232	0
2	0	0	3	0	0.00100	0
2	0	0	3	0.01655	41.79817	0
2	0	0	3	0.01335	42.96416	0
2	0	0	3	0.01309	35.02408	0
2	0	0	3	0.01971	37.70178	0
2	0	0	3	0.01868	39.85814	0
2	0	0	3	0.01919	41.07210	0
2	0	0	3	0.01937	38.90668	0
2	0	0	3	0.01978	43.33531	0
2	0	0	3	0.01943	44.48745	0
2	0	0	3	0	0.00100	0
2	0	0	3	0.01678	38.65829	0
2	0	0	3	0.01324	36.65743	0
2	0	0	3	0.01145	35.01090	0
2	0	0	3	0.01101	40.14638	0
2	0	0	3	0.01969	39.37910	0
2	0	0	3	0.01403	40.55052	0
2	0	0	3	0.01449	41.04541	0
2	0	0	3	0.01481	36.69518	0
2	0	0	3	0	0.00100	0
2	0	0	3	0.01218	42.25118	0
2	0	0	3	0.01030	41.26117	0
2	0	0	3	0.01369	41.21800	0
2	0	0	3	0.01382	39.99282	0
2	0	0	3	0.01667	42.66637	0
2	0	0	3	0.01266	42.67761	0
2	0	0	3	0.01406	35.72342	0
2	0	0	3	0.01187	39.64949	0
2	0	0	3	0	0.00100	0
2	0	0	3	0.01746	40.30054	0
2	0	0	3	0.01213	38.38450	0
2	0	0	3	0.01495	41.34729	0
2	0	0	3	0.01256	37.84290	0
2	0	0	3	0	0.00100	0
2	0	0	3	0.01695	42.48245	0
2	0	0	3	0.01046	39.93261	0
2	0	0	3	0.01216	39.30224	0
2	0	0	3	0.01115	39.21122	0
2	0	0	3	0.01654	37.47495	0
2	0	0	3	0.01719	38.42339	0
2	0	0	3	0.01485	39.06106	0
2	0	0	3	0	0.00100	0
2	0	0	3	0.01470	44.49932	0
2	0	0	3	0.01567	35.85138	0
2	0	0	3	0.01821	35.84378	0
2	0	0	3	0.01928	35.38827	0
2	0	0	3	0.01164	43.85843	0
2	0	0	3	0.01165	42.91406	0
2	0	0	3	0.01466	40.25771	0
2	0	0	3	0.01538	38.66791	0
2	0	0	3	0.01105	36.80723	0
2	0	0	3	0.01737	41.95925	0
2	0	0	3	0.01725	43.64990	0
2	0	0	3	0.01767	44.12366	0
2	0	0	3	0.01157	44.83164	0
2	0	0	3	0	0.00100	0
2	0	0	3	0.01568	43.97847	0
2	0	0	3	0.01053	43.14491	0
2	0	0	3	0.01598	38.53432	0
2	0	0	3	0.01244	35.24652	0
2	0	0	3	0.01922	37.43210	0
2	0	0	3	0.01945	43.70010	0
2	0	0	3	0.01683	44.16290	0
2	0	0	3	0.01141	35.70195	0
2	0	0	3	0.01031	37.74219	0
2	0	0	3	0.01029	43.51114	0
2	0	0	3	0	39.21000	0
2	0	0	3	0	45.96000	0
2	0	0	3	0	34.70000	0
2	0	0	3	0	34.70000	0
2	0	0	3	0	33.58000	0
2	0	0	3	0	33.10000	0
];

mpc.bus_name = {
'BGE'
'METED'
'PENELEC'
'PPL'
'PECO'
'PEPCO'
'PSEG'
'RECO'
'DPL'
'DUQ'
'JCPL'
'AECO'
'DOM'
'APS'
'OVEC'
'COMED'
'DAY'
'DEOK'
'ATSI'
'EKPC'
'AEP'
};

mpc.fuel_type = {
'Bio_MW'
'Coal_MW'
'NG_MW'
'Crude_MW'
'Solar_MW'
'Bio_MW'
'Coal_MW'
'Hydro_MW'
'NG_MW'
'Crude_MW'
'Solar_MW'
'Bat_MW'
'Bio_MW'
'Coal_MW'
'Hydro_MW'
'HydroPS_MW'
'NG_MW'
'Crude_MW'
'Solar_MW'
'Wind_MW'
'Bio_MW'
'Coal_MW'
'Hydro_MW'
'HydroPS_MW'
'NG_MW'
'Nuclear_MW'
'Crude_MW'
'Solar_MW'
'Wind_MW'
'Other_MW'
'Bat_MW'
'Bio_MW'
'NG_MW'
'Nuclear_MW'
'Crude_MW'
'Solar_MW'
'Bat_MW'
'Bio_MW'
'NG_MW'
'Crude_MW'
'Solar_MW'
'Bat_MW'
'Bio_MW'
'Hydro_MW'
'NG_MW'
'Crude_MW'
'Solar_MW'
'Wind_MW'
'Other_MW'
'Solar_MW'
'Bat_MW'
'Bio_MW'
'Coal_MW'
'Hydro_MW'
'NG_MW'
'Crude_MW'
'Solar_MW'
'Wind_MW'
'Other_MW'
'Hydro_MW'
'NG_MW'
'Nuclear_MW'
'Crude_MW'
'Solar_MW'
'Other_MW'
'Bat_MW'
'Bio_MW'
'HydroPS_MW'
'NG_MW'
'Crude_MW'
'Solar_MW'
'Bat_MW'
'Bio_MW'
'NG_MW'
'Nuclear_MW'
'Crude_MW'
'Solar_MW'
'Wind_MW'
'Other_MW'
'Bat_MW'
'Bio_MW'
'Coal_MW'
'Hydro_MW'
'NG_MW'
'Nuclear_MW'
'Crude_MW'
'Solar_MW'
'Wind_MW'
'Other_MW'
'Bat_MW'
'Bio_MW'
'Coal_MW'
'Hydro_MW'
'HydroPS_MW'
'NG_MW'
'Crude_MW'
'Solar_MW'
'Wind_MW'
'Bat_MW'
'Bio_MW'
'Hydro_MW'
'NG_MW'
'Nuclear_MW'
'Crude_MW'
'Solar_MW'
'Wind_MW'
'Other_MW'
'Bat_MW'
'NG_MW'
'Crude_MW'
'Solar_MW'
'Wind_MW'
'Bat_MW'
'Bio_MW'
'Coal_MW'
'Hydro_MW'
'NG_MW'
'Crude_MW'
'Solar_MW'
'Other_MW'
'Bat_MW'
'Bio_MW'
'Coal_MW'
'NG_MW'
'Nuclear_MW'
'Crude_MW'
'Solar_MW'
'Wind_MW'
'Other_MW'
'Bio_MW'
'Coal_MW'
'Hydro_MW'
'NG_MW'
'Solar_MW'
'Bat_MW'
'Bio_MW'
'Coal_MW'
'Hydro_MW'
'HydroPS_MW'
'NG_MW'
'Nuclear_MW'
'Crude_MW'
'Solar_MW'
'Wind_MW'
'Other_MW'
'INTER_NYISO_1'
'INTER_NYISO_2'
'INTER_SOUTH_1'
'INTER_SOUTH_2'
'INTER_MISO_1'
'INTER_MISO_2'
};

end
